#======================================================================

# CRYSTAL DATA

#----------------------------------------------------------------------

data_VESTA_phase_1


_pd_phase_name                         'Ga                                    '
_cell_length_a                         4.56689
_cell_length_b                         7.75330
_cell_length_c                         4.59978
_cell_angle_alpha                      90
_cell_angle_beta                       90
_cell_angle_gamma                      90
_symmetry_space_group_name_H-M         'P 1'
_symmetry_Int_Tables_number            1

loop_
_symmetry_equiv_pos_as_xyz
   'x, y, z'

loop_
   _atom_site_label
   _atom_site_occupancy
   _atom_site_fract_x
   _atom_site_fract_y
   _atom_site_fract_z
   _atom_site_thermal_displace_type
   _atom_site_B_iso_or_equiv
   _atom_site_type_symbol
   Ga1      1.0    0            0.15642      0.08120     Biso  1.000  Ga
   Ga2      1.0    0            0.84358      0.91880     Biso  1.000  Ga
   Ga3      1.0    0            0.34358      0.58120     Biso  1.000  Ga
   Ga4      1.0    0            0.65642      0.41880     Biso  1.000  Ga
   Ga5      1.0    0.50000      0.65642      0.08120     Biso  1.000  Ga
   Ga6      1.0    0.50000      0.34358      0.91880     Biso  1.000  Ga
   Ga7      1.0    0.50000      0.84358      0.58120     Biso  1.000  Ga
   Ga8      1.0    0.50000      0.15642      0.41880     Biso  1.000  Ga
