#\#CIF1.1
##########################################################################
#               Crystallographic Information Format file
#               Produced by PyCifRW module
#
#  This is a CIF file.  CIF has been adopted by the International
#  Union of Crystallography as the standard for data archiving and
#  transmission.
#
#  For information on this file format, follow the CIF links at
#  http://www.iucr.org
##########################################################################

data_He(Li3H)3
_symmetry_space_group_name_H-M          'P 1'
_cell_length_a                          5.0
_cell_length_b                          5.0
_cell_length_c                          5.0
_cell_angle_alpha                       90.0
_cell_angle_beta                        90.0
_cell_angle_gamma                       90.0
_chemical_name_systematic               'Generated by pymatgen'
_symmetry_Int_Tables_number             1
_chemical_formula_structural            He(Li3H)3
_chemical_formula_sum                   'He1 Li9 H3'
_cell_volume                            125.0
_cell_formula_units_Z                   1
loop_
  _symmetry_equiv_pos_site_id
  _symmetry_equiv_pos_as_xyz
   1  'x, y, z'

loop_
  _atom_site_type_symbol
  _atom_site_label
  _atom_site_symmetry_multiplicity
  _atom_site_fract_x
  _atom_site_fract_y
  _atom_site_fract_z
  _atom_site_attached_hydrogens
  _atom_site_B_iso_or_equiv
  _atom_site_occupancy
   Li  Li1  1  0.250000  0.250000  0.250000  0  .  1.0
   Li  Li2  1  0.250000  0.750000  0.750000  0  .  1.0
   Li  Li3  1  0.750000  0.250000  0.750000  0  .  1.0
   Li  Li4  1  0.750000  0.750000  0.250000  0  .  1.0
   Li  Li5  1  0.750000  0.750000  0.750000  0  .  1.0
   Li  Li6  1  0.750000  0.250000  0.250000  0  .  1.0
   Li  Li7  1  0.250000  0.750000  0.250000  0  .  1.0
   Li  Li8  1  0.250000  0.250000  0.750000  0  .  1.0
   Li  Li9  1  0.500000  0.500000  0.500000  0  .  1.0
   H  H10  1  0.000000  0.000000  0.000000  0  .  0.75
   He  He11  1  0.000000  0.000000  0.000000  0  .  0.25
   H  H12  1  0.000000  0.500000  0.500000  0  .  0.75
   He  He13  1  0.000000  0.500000  0.500000  0  .  0.25
   H  H14  1  0.500000  0.000000  0.500000  0  .  0.75
   He  He15  1  0.500000  0.000000  0.500000  0  .  0.25
   H  H16  1  0.500000  0.500000  0.000000  0  .  0.75
   He  He17  1  0.500000  0.500000  0.000000  0  .  0.25